---- qbsp / ericw-tools v0.18.1 ----
Input file: firstmap.map
Output file: firstmap.bsp

---- LoadMapFile ----
*** WARNING 06: No info_player_deathmatch entities in level
           42 faces
            7 brushes
            9 entities
            2 unique texnames
           16 texinfo

Opened WAD: C:/Users/Ryan/Documents/quake-leveldesign-starterkit-master/quake-leveldesign-starterkit-master/wads/id1.wad
Processing hull 0...
---- Brush_LoadEntity ----
            7 brushes
           18 planes
---- CSGFaces ----
           42 brushfaces
           64 csgfaces
           54 mergedfaces
---- SolidBSP ----
           64 split nodes
           19 solid leafs
           46 empty leafs
            0 water leafs
            0 detail leafs
            0 detail illusionary leafs
            0 detail fence leafs
            0 illusionary visblocker leafs
          107 leaffaces
          105 nodefaces
---- Portalize ----
           46 vis leafs
           46 vis clusters
          109 vis portals
---- FillOutside ----
           42 outleafs
---- MergeAll ----
           16 mergefaces
---- SolidBSP ----
           12 split nodes
            9 solid leafs
            4 empty leafs
            0 water leafs
            0 detail leafs
            0 detail illusionary leafs
            0 detail fence leafs
            0 illusionary visblocker leafs
           29 leaffaces
           22 nodefaces
---- Portalize ----
            4 vis leafs
            4 vis clusters
            4 vis portals
---- Tjunc ----
           28 world edges
           82 edge points
           20 edges added by tjunctions
            0 faces added by tjunctions
---- MakeFaceEdges ----
---- GrowRegions ----
Processing hull 1...
*** WARNING 19: No entities in empty space -- no filling performed (hull 1)
Processing hull 2...
*** WARNING 19: No entities in empty space -- no filling performed (hull 2)
---- WriteBSPFile ----
Wrote firstmap.bsp
           49 planes              980
           32 vertexes            384
           12 nodes               288
            7 texinfo             280
           22 faces               440
          147 clipnodes          1176
            5 leafs               140
           29 marksurfaces         58
          108 surfedges           432
           55 edges               220
            8 textures          43876
              lightdata             0
              visdata               0
              entdata             678

0.054 seconds elapsed
Peak memory usage: 531990 (0.5M)
